Version 4
SHEET 1 880 680
WIRE 416 112 384 112
WIRE 448 112 416 112
WIRE 80 144 -32 144
WIRE 128 144 80 144
WIRE 208 144 160 144
WIRE 256 144 208 144
WIRE 416 176 368 176
WIRE 448 176 416 176
WIRE -32 192 -32 144
WIRE 80 192 80 144
WIRE 208 192 208 144
WIRE 208 304 208 272
WIRE 80 320 80 272
WIRE -32 400 -32 256
WIRE 80 400 80 384
WIRE 80 400 -32 400
WIRE 80 416 80 400
FLAG 416 112 Vfb
FLAG 416 176 Vref
SYMBOL LTCSymbols\\AMPLIFIER 384 208 R180
SYMATTR InstName X1
SYMBOL LTCSymbols\\RESISTOR 192 176 R0
SYMATTR InstName Ro
SYMATTR Value ""
SYMBOL LTCSymbols\\RESISTOR 64 176 R0
SYMATTR InstName Rth
SYMATTR Value ""
SYMBOL LTCSymbols\\CAP 64 320 R0
SYMATTR InstName Cth
SYMATTR Value ""
SYMBOL LTCSymbols\\CAP -48 192 R0
SYMATTR InstName Cthp
SYMATTR Value ""
SYMBOL LTCSymbols\\AGND 208 304 R0
SYMATTR InstName X2
SYMBOL LTCSymbols\\AGND 80 416 R0
SYMATTR InstName X3
TEXT 216 104 Left 2 ;i_gm
TEXT 120 112 Left 2 ;ITH
RECTANGLE Normal 160 128 128 160
CIRCLE Normal 240 128 272 160
CIRCLE Normal 224 128 256 160
