Version 4
SHEET 1 880 680
WIRE 224 -112 -720 -112
WIRE -720 -96 -720 -112
WIRE 224 -16 224 -112
WIRE 512 -16 448 -16
WIRE 576 -16 512 -16
WIRE -720 0 -720 -16
WIRE 576 0 576 -16
WIRE 32 16 -80 16
WIRE -80 32 -80 16
WIRE 448 32 448 -16
WIRE 32 64 32 16
WIRE 96 64 32 64
WIRE 576 96 576 80
WIRE -80 128 -80 112
WIRE 32 128 -80 128
WIRE -80 144 -80 128
WIRE 32 144 32 128
WIRE 96 144 32 144
WIRE 400 144 352 144
WIRE 448 144 448 112
WIRE 448 144 400 144
WIRE 96 224 32 224
WIRE -80 240 -80 224
WIRE 32 240 32 224
WIRE 32 240 -80 240
WIRE -80 256 -80 240
WIRE 304 336 304 320
WIRE -80 352 -80 336
WIRE 144 352 144 320
WIRE 144 352 80 352
WIRE 80 400 80 352
WIRE 224 400 224 320
WIRE 80 496 80 480
WIRE 224 496 224 480
FLAG 304 336 0
FLAG -80 352 0
FLAG -720 0 0
FLAG 576 96 0
FLAG -720 -112 IN
FLAG 224 496 0
FLAG 80 496 0
FLAG 400 144 OUT
FLAG 512 -16 V_Pullup
SYMBOL res -96 128 R0
SYMATTR InstName R2
SYMATTR Value 91K
SYMBOL res -96 16 R0
SYMATTR InstName R3
SYMATTR Value 200k
SYMBOL res -96 240 R0
SYMATTR InstName R1
SYMATTR Value 910k
SYMBOL voltage -720 -112 R0
WINDOW 123 0 0 Left 0
WINDOW 39 0 0 Left 0
SYMATTR InstName V1
SYMATTR Value PWL(0 0 20u 0 10m 17 +20m 21 +10m 21 +10m 18.5 +10m 17)
SYMBOL res 432 16 R0
SYMATTR InstName R4
SYMATTR Value 100K
SYMBOL voltage 576 -16 R0
SYMATTR InstName V2
SYMATTR Value 5
SYMBOL LTC2965 224 144 R0
SYMATTR InstName U1
SYMBOL voltage 80 384 R0
WINDOW 123 0 0 Left 0
WINDOW 39 0 0 Left 0
SYMATTR InstName V_PS
SYMATTR Value 0
SYMBOL voltage 224 384 R0
WINDOW 123 0 0 Left 0
WINDOW 39 0 0 Left 0
SYMATTR InstName V_RS
SYMATTR Value 0
TEXT 504 248 Left 2 !.tran 100m startup
